<?xml version="1.0" encoding="UTF-8"?>

<!-- generated on 2026-06-16 05:43:36.987313 by Eclipse SUMO osmWebWizard.py v1_27_0+0000-e238ea04b71
<configuration>
    <net-file value="C:\Users\tragh\Desktop\ISCS_Demo\2026-06-16-05-42-27\osm.net.xml.gz"/>
    <output-trip-file value="C:\Users\tragh\Desktop\ISCS_Demo\2026-06-16-05-42-27\osm.passenger.trips.xml"/>
    <route-file value="C:\Users\tragh\Desktop\ISCS_Demo\2026-06-16-05-42-27\osm.passenger.rou.xml"/>
    <prefix value="veh"/>
    <trip-attributes value="departLane=&quot;best&quot;"/>
    <fringe-start-attributes value="departSpeed=&quot;max&quot;"/>
    <vehicle-class value="passenger"/>
    <lanes value="True"/>
    <fringe-factor value="5"/>
    <allow-fringe.min-length value="1000.0"/>
    <edge-permission value="passenger"/>
    <via-edge-types value="highway.motorway,highway.motorway_link,highway.trunk_link,highway.primary_link,highway.secondary_link,highway.tertiary_link"/>
    <min-distance value="300.0"/>
    <min-distance.fringe value="10.0"/>
    <remove-loops value="True"/>
    <insertion-density value="12.0"/>
</configuration>
-->

<routes xmlns:xsi="http://www.w3.org/2001/XMLSchema-instance" xsi:noNamespaceSchemaLocation="http://sumo.dlr.de/xsd/routes_file.xsd">
    <vType id="veh_passenger" vClass="passenger"/>
    <trip id="veh0" depart="0.00" from="119884751#7" to="-119549804#1" departLane="best" type="veh_passenger"/>
    <trip id="veh1" depart="0.29" from="-169529433#8" to="-120008946#0" departLane="best" type="veh_passenger"/>
    <trip id="veh2" depart="0.58" from="120008889#12" to="120008890#8" departLane="best" type="veh_passenger"/>
    <trip id="veh3" depart="0.88" from="696614947#0" to="-119722664#3" departLane="best" type="veh_passenger"/>
    <trip id="veh4" depart="1.17" from="-697803286#1" to="-119683475" departLane="best" type="veh_passenger"/>
    <trip id="veh5" depart="1.46" from="-120008929" to="119722560#1" departLane="best" type="veh_passenger"/>
    <trip id="veh6" depart="1.75" from="-119549783#2" to="-120008875#0" departLane="best" type="veh_passenger" departSpeed="max"/>
    <trip id="veh7" depart="2.04" from="120004179#0" to="119722644#3" departLane="best" type="veh_passenger" departSpeed="max"/>
    <trip id="veh8" depart="2.33" from="-120008931#5" to="120004170#1" departLane="best" type="veh_passenger"/>
    <trip id="veh9" depart="2.63" from="1328728782#12" to="-117463707#20" departLane="best" type="veh_passenger"/>
    <trip id="veh10" depart="2.92" from="1328728781#21" to="120008967#5" departLane="best" type="veh_passenger"/>
    <trip id="veh11" depart="3.21" from="-696558058#6" to="-120004266#0" departLane="best" type="veh_passenger" departSpeed="max"/>
    <trip id="veh12" depart="3.50" from="697803291#0" to="-696896210" departLane="best" type="veh_passenger"/>
    <trip id="veh13" depart="3.79" from="-119722664#0" to="-119883705#0" departLane="best" type="veh_passenger"/>
    <trip id="veh14" depart="4.08" from="407742559#10" to="120004218#3" departLane="best" type="veh_passenger"/>
    <trip id="veh15" depart="4.38" from="119549782#4" to="700848446" departLane="best" type="veh_passenger"/>
    <trip id="veh16" depart="4.67" from="-696912666#4" to="119722662#1" departLane="best" type="veh_passenger"/>
    <trip id="veh17" depart="4.96" from="169529501#4" to="120004250#1" departLane="best" type="veh_passenger"/>
    <trip id="veh18" depart="5.25" from="625210819#2" to="119883738#2" departLane="best" type="veh_passenger"/>
    <trip id="veh19" depart="5.54" from="120004339#1" to="-119683526#9" departLane="best" type="veh_passenger"/>
    <trip id="veh20" depart="5.83" from="-120008959#1" to="-673198426#0" departLane="best" type="veh_passenger"/>
    <trip id="veh21" depart="6.13" from="-119722628" to="-120008971#1" departLane="best" type="veh_passenger" departSpeed="max"/>
    <trip id="veh22" depart="6.42" from="-119883688#0" to="-483216450" departLane="best" type="veh_passenger"/>
    <trip id="veh23" depart="6.71" from="119884731#6" to="-697788635" departLane="best" type="veh_passenger"/>
    <trip id="veh24" depart="7.00" from="-696849770#2" to="-120008905#5" departLane="best" type="veh_passenger"/>
    <trip id="veh25" depart="7.29" from="-1308939993#1" to="697785872" departLane="best" type="veh_passenger" departSpeed="max"/>
    <trip id="veh26" depart="7.59" from="120004173#5" to="120004230#3" departLane="best" type="veh_passenger"/>
    <trip id="veh27" depart="7.88" from="-120004298#1" to="128147814#6" departLane="best" type="veh_passenger"/>
    <trip id="veh28" depart="8.17" from="701095344#1" to="120004318#2" departLane="best" type="veh_passenger"/>
    <trip id="veh29" depart="8.46" from="119683501#18" to="120008923#2" departLane="best" type="veh_passenger"/>
    <trip id="veh30" depart="8.75" from="306329120#2" to="169529503#4" departLane="best" type="veh_passenger"/>
    <trip id="veh31" depart="9.04" from="-120008963#4" to="-119683480#8" departLane="best" type="veh_passenger"/>
    <trip id="veh32" depart="9.34" from="-696048652#7" to="-169529462" departLane="best" type="veh_passenger"/>
    <trip id="veh33" depart="9.63" from="-120008902#2" to="697803286#0" departLane="best" type="veh_passenger"/>
    <trip id="veh34" depart="9.92" from="695545032" to="-696617945#0" departLane="best" type="veh_passenger"/>
    <trip id="veh35" depart="10.21" from="120004189#4" to="-702624046" departLane="best" type="veh_passenger"/>
    <trip id="veh36" depart="10.50" from="696868138#0" to="119396781#0" departLane="best" type="veh_passenger"/>
    <trip id="veh37" depart="10.79" from="-1285969543" to="-120026313#0" departLane="best" type="veh_passenger" departSpeed="max"/>
    <trip id="veh38" depart="11.09" from="119683523#2" to="-1430633512" departLane="best" type="veh_passenger"/>
    <trip id="veh39" depart="11.38" from="119722600#5" to="696917715#0" departLane="best" type="veh_passenger"/>
    <trip id="veh40" depart="11.67" from="-697108950#1" to="-120008933#2" departLane="best" type="veh_passenger"/>
    <trip id="veh41" depart="11.96" from="797310248" to="119722571#0" departLane="best" type="veh_passenger"/>
    <trip id="veh42" depart="12.25" from="-119722658#1" to="-119722543#1" departLane="best" type="veh_passenger"/>
    <trip id="veh43" depart="12.54" from="-119883720#0" to="120004273" departLane="best" type="veh_passenger"/>
    <trip id="veh44" depart="12.84" from="-119722583#0" to="-698602559" departLane="best" type="veh_passenger"/>
    <trip id="veh45" depart="13.13" from="704871991" to="119722618#3" departLane="best" type="veh_passenger"/>
    <trip id="veh46" depart="13.42" from="697977938#1" to="696661025#0" departLane="best" type="veh_passenger"/>
    <trip id="veh47" depart="13.71" from="-117463710#23" to="1217118565" departLane="best" type="veh_passenger"/>
    <trip id="veh48" depart="14.00" from="120004257#3" to="119722629#26" departLane="best" type="veh_passenger"/>
    <trip id="veh49" depart="14.29" from="-1308939993#1" to="120004330#1" departLane="best" type="veh_passenger" departSpeed="max"/>
    <trip id="veh50" depart="14.59" from="-119883721#6" to="101861013#2" departLane="best" type="veh_passenger"/>
    <trip id="veh51" depart="14.88" from="-701095344#0" to="697824136#7" departLane="best" type="veh_passenger"/>
    <trip id="veh52" depart="15.17" from="695535599#6" to="-1486802397#1" departLane="best" type="veh_passenger"/>
    <trip id="veh53" depart="15.46" from="101861006#5" to="-120004351#2" departLane="best" type="veh_passenger"/>
    <trip id="veh54" depart="15.75" from="696849770#1" to="696798856#2" departLane="best" type="veh_passenger"/>
    <trip id="veh55" depart="16.05" from="-673197991#1" to="120004309#0" departLane="best" type="veh_passenger"/>
    <trip id="veh56" depart="16.34" from="119722657" to="-120004257#3" departLane="best" type="veh_passenger" departSpeed="max"/>
    <trip id="veh57" depart="16.63" from="120008967#5" to="119722629#8" departLane="best" type="veh_passenger"/>
    <trip id="veh58" depart="16.92" from="120026303#1" to="119722622#1" departLane="best" type="veh_passenger"/>
    <trip id="veh59" depart="17.21" from="-1018527522#5" to="-696806144#15" departLane="best" type="veh_passenger"/>
    <trip id="veh60" depart="17.50" from="-119396804#4" to="697769548#1" departLane="best" type="veh_passenger"/>
    <trip id="veh61" depart="17.80" from="696048652#7" to="696064976" departLane="best" type="veh_passenger"/>
    <trip id="veh62" depart="18.09" from="-694969219#3" to="-119722579" departLane="best" type="veh_passenger"/>
    <trip id="veh63" depart="18.38" from="696048652#2" to="697815332" departLane="best" type="veh_passenger"/>
    <trip id="veh64" depart="18.67" from="-119722644#2" to="119683486#0" departLane="best" type="veh_passenger"/>
    <trip id="veh65" depart="18.96" from="-119722594#1" to="1430633511#0" departLane="best" type="veh_passenger"/>
    <trip id="veh66" depart="19.25" from="120008971#4" to="-120004197#3" departLane="best" type="veh_passenger"/>
    <trip id="veh67" depart="19.55" from="101805131#0" to="119722655#2" departLane="best" type="veh_passenger" departSpeed="max"/>
    <trip id="veh68" depart="19.84" from="-1285969543" to="696806144#18" departLane="best" type="veh_passenger" departSpeed="max"/>
    <trip id="veh69" depart="20.13" from="-697815322" to="-120008912#0" departLane="best" type="veh_passenger"/>
    <trip id="veh70" depart="20.42" from="-120008872#0" to="-696571693" departLane="best" type="veh_passenger"/>
    <trip id="veh71" depart="20.71" from="704831970" to="120004348#0" departLane="best" type="veh_passenger"/>
    <trip id="veh72" depart="21.00" from="-698742673" to="119722590#3" departLane="best" type="veh_passenger" departSpeed="max"/>
    <trip id="veh73" depart="21.30" from="-119959609#1" to="-120008951#0" departLane="best" type="veh_passenger"/>
    <trip id="veh74" depart="21.59" from="-696556983#1" to="119959628#5" departLane="best" type="veh_passenger" departSpeed="max"/>
    <trip id="veh75" depart="21.88" from="-120008967#3" to="-120008935#3" departLane="best" type="veh_passenger"/>
    <trip id="veh76" depart="22.17" from="-119722600#2" to="120004283#0" departLane="best" type="veh_passenger"/>
    <trip id="veh77" depart="22.46" from="-120008963#3" to="697061459" departLane="best" type="veh_passenger"/>
    <trip id="veh78" depart="22.76" from="625210813#1" to="-119722611#1" departLane="best" type="veh_passenger"/>
    <trip id="veh79" depart="23.05" from="-120026110#0" to="120008868#6" departLane="best" type="veh_passenger"/>
    <trip id="veh80" depart="23.34" from="-120008913#2" to="-120004212" departLane="best" type="veh_passenger"/>
    <trip id="veh81" depart="23.63" from="697061484#0" to="119883721#6" departLane="best" type="veh_passenger"/>
    <trip id="veh82" depart="23.92" from="101483104#15" to="306329082" departLane="best" type="veh_passenger"/>
    <trip id="veh83" depart="24.21" from="1328728781#7-AddedOffRampEdge" to="-120004370#3" departLane="best" type="veh_passenger"/>
    <trip id="veh84" depart="24.51" from="-119722672#5" to="101861006#1-AddedOffRampEdge" departLane="best" type="veh_passenger"/>
    <trip id="veh85" depart="24.80" from="-697815325#2" to="119396806#16" departLane="best" type="veh_passenger"/>
    <trip id="veh86" depart="25.09" from="120008863" to="120008885#0" departLane="best" type="veh_passenger"/>
    <trip id="veh87" depart="25.38" from="700827952" to="-119883712#0" departLane="best" type="veh_passenger"/>
    <trip id="veh88" depart="25.67" from="-697127233" to="-696912964" departLane="best" type="veh_passenger"/>
    <trip id="veh89" depart="25.96" from="625210819#1" to="-120026352#1" departLane="best" type="veh_passenger"/>
    <trip id="veh90" depart="26.26" from="-120004362#4" to="117463707#10" departLane="best" type="veh_passenger"/>
    <trip id="veh91" depart="26.55" from="-697803286#0" to="-483216452#2" departLane="best" type="veh_passenger"/>
    <trip id="veh92" depart="26.84" from="-120026423#5" to="697178964#0" departLane="best" type="veh_passenger"/>
    <trip id="veh93" depart="27.13" from="-700827951" to="696661025#1" departLane="best" type="veh_passenger"/>
    <trip id="veh94" depart="27.42" from="119683484#1" to="-119722550#4" departLane="best" type="veh_passenger"/>
    <trip id="veh95" depart="27.71" from="858328179" to="696076578" departLane="best" type="veh_passenger" departSpeed="max"/>
    <trip id="veh96" depart="28.01" from="697976267#2" to="697202404" departLane="best" type="veh_passenger"/>
    <trip id="veh97" depart="28.30" from="407742559#16" to="-120004301" departLane="best" type="veh_passenger"/>
    <trip id="veh98" depart="28.59" from="101805132#2-AddedOffRampEdge" to="-120008919#1" departLane="best" type="veh_passenger"/>
    <trip id="veh99" depart="28.88" from="-697111830#1" to="-119722582#1" departLane="best" type="veh_passenger"/>
    <trip id="veh100" depart="29.17" from="-696912961#0" to="701386078" departLane="best" type="veh_passenger"/>
    <trip id="veh101" depart="29.47" from="-1285969543" to="306329082" departLane="best" type="veh_passenger" departSpeed="max"/>
    <trip id="veh102" depart="29.76" from="-701386078" to="101805146#2-AddedOffRampEdge" departLane="best" type="veh_passenger"/>
    <trip id="veh103" depart="30.05" from="697803291#2" to="794214846" departLane="best" type="veh_passenger"/>
    <trip id="veh104" depart="30.34" from="119683501#1" to="120026437#2" departLane="best" type="veh_passenger"/>
    <trip id="veh105" depart="30.63" from="-120004250#0" to="-695525779" departLane="best" type="veh_passenger"/>
    <trip id="veh106" depart="30.92" from="119549805#6" to="1328728781#6" departLane="best" type="veh_passenger"/>
    <trip id="veh107" depart="31.22" from="-119722567" to="119959609#0" departLane="best" type="veh_passenger" departSpeed="max"/>
    <trip id="veh108" depart="31.51" from="101861013#2-AddedOnRampEdge" to="696558058#6" departLane="best" type="veh_passenger"/>
    <trip id="veh109" depart="31.80" from="-120004257#0" to="698303241#1" departLane="best" type="veh_passenger"/>
    <trip id="veh110" depart="32.09" from="-119722628" to="-120004362#13" departLane="best" type="veh_passenger" departSpeed="max"/>
    <trip id="veh111" depart="32.38" from="119722629#21" to="120008889#5" departLane="best" type="veh_passenger"/>
    <trip id="veh112" depart="32.67" from="-120008977#0" to="-120004177#0" departLane="best" type="veh_passenger"/>
    <trip id="veh113" depart="32.97" from="696571696" to="-120026313#0" departLane="best" type="veh_passenger"/>
    <trip id="veh114" depart="33.26" from="119722629#20" to="120004252#1" departLane="best" type="veh_passenger"/>
    <trip id="veh115" depart="33.55" from="-697797422" to="119959604#6" departLane="best" type="veh_passenger"/>
    <trip id="veh116" depart="33.84" from="117463748#4" to="697783526" departLane="best" type="veh_passenger"/>
    <trip id="veh117" depart="34.13" from="-120008884#0" to="120026324#0" departLane="best" type="veh_passenger"/>
    <trip id="veh118" depart="34.42" from="-120026110#5" to="-702624046" departLane="best" type="veh_passenger" departSpeed="max"/>
    <trip id="veh119" depart="34.72" from="120004237" to="-695545035#1" departLane="best" type="veh_passenger" departSpeed="max"/>
    <trip id="veh120" depart="35.01" from="-696049680" to="1328728782#17" departLane="best" type="veh_passenger" departSpeed="max"/>
    <trip id="veh121" depart="35.30" from="-119722603#1" to="117463752#1" departLane="best" type="veh_passenger"/>
    <trip id="veh122" depart="35.59" from="797314139" to="794228757" departLane="best" type="veh_passenger" departSpeed="max"/>
    <trip id="veh123" depart="35.88" from="-119722603#7" to="-120008917#2" departLane="best" type="veh_passenger"/>
    <trip id="veh124" depart="36.17" from="-1285969543" to="697783521" departLane="best" type="veh_passenger" departSpeed="max"/>
    <trip id="veh125" depart="36.47" from="696058528#1" to="696809795" departLane="best" type="veh_passenger"/>
    <trip id="veh126" depart="36.76" from="-696849769" to="-120004271" departLane="best" type="veh_passenger" departSpeed="max"/>
    <trip id="veh127" depart="37.05" from="276098134" to="120008978#1" departLane="best" type="veh_passenger" departSpeed="max"/>
    <trip id="veh128" depart="37.34" from="119722664#14" to="703349936#2" departLane="best" type="veh_passenger"/>
    <trip id="veh129" depart="37.63" from="120004184#7" to="-117463707#4" departLane="best" type="veh_passenger"/>
    <trip id="veh130" depart="37.93" from="1430633511#1" to="-695535599#8" departLane="best" type="veh_passenger"/>
    <trip id="veh131" depart="38.22" from="120004218#0" to="697788639#1" departLane="best" type="veh_passenger" departSpeed="max"/>
    <trip id="veh132" depart="38.51" from="-120004193#1" to="-119959628#0" departLane="best" type="veh_passenger"/>
    <trip id="veh133" depart="38.80" from="-119883711#0" to="119722664#3" departLane="best" type="veh_passenger"/>
    <trip id="veh134" depart="39.09" from="-1430633511#0" to="120004221#0" departLane="best" type="veh_passenger"/>
    <trip id="veh135" depart="39.38" from="120004359#0" to="-120008889#9" departLane="best" type="veh_passenger"/>
    <trip id="veh136" depart="39.68" from="119883740" to="-169529433#11" departLane="best" type="veh_passenger"/>
    <trip id="veh137" depart="39.97" from="360607369#8" to="-119722677#2" departLane="best" type="veh_passenger"/>
    <trip id="veh138" depart="40.26" from="-697815325#2" to="-480208168#6" departLane="best" type="veh_passenger"/>
    <trip id="veh139" depart="40.55" from="-102335725#1" to="169529463" departLane="best" type="veh_passenger" departSpeed="max"/>
    <trip id="veh140" depart="40.84" from="119884743#2" to="-1356602787#3" departLane="best" type="veh_passenger"/>
    <trip id="veh141" depart="41.13" from="120008901#1" to="119722661" departLane="best" type="veh_passenger"/>
    <trip id="veh142" depart="41.43" from="-697824136#0" to="-117463710#18" departLane="best" type="veh_passenger"/>
    <trip id="veh143" depart="41.72" from="-119722606#5" to="696816509#1" departLane="best" type="veh_passenger" departSpeed="max"/>
    <trip id="veh144" depart="42.01" from="696806144#16" to="119722646" departLane="best" type="veh_passenger"/>
    <trip id="veh145" depart="42.30" from="276098138#0" to="119959604#0" departLane="best" type="veh_passenger" departSpeed="max"/>
    <trip id="veh146" depart="42.59" from="-120004235#0" to="-120004191#4" departLane="best" type="veh_passenger"/>
    <trip id="veh147" depart="42.88" from="-695522383" to="696920664#2" departLane="best" type="veh_passenger" departSpeed="max"/>
    <trip id="veh148" depart="43.18" from="128147845#0" to="696632789#0" departLane="best" type="veh_passenger"/>
    <trip id="veh149" depart="43.47" from="696718556" to="-120008907#2" departLane="best" type="veh_passenger"/>
    <trip id="veh150" depart="43.76" from="-120026423#3" to="-119883723" departLane="best" type="veh_passenger"/>
    <trip id="veh151" depart="44.05" from="120026314" to="696849769" departLane="best" type="veh_passenger" departSpeed="max"/>
    <trip id="veh152" depart="44.34" from="-697202404" to="120004256#1" departLane="best" type="veh_passenger" departSpeed="max"/>
    <trip id="veh153" depart="44.64" from="-120004247" to="697769619" departLane="best" type="veh_passenger"/>
    <trip id="veh154" depart="44.93" from="673197995#0" to="700854403#1" departLane="best" type="veh_passenger"/>
    <trip id="veh155" depart="45.22" from="1328728782#16" to="696814150" departLane="best" type="veh_passenger"/>
    <trip id="veh156" depart="45.51" from="-696310505#3" to="697769621" departLane="best" type="veh_passenger" departSpeed="max"/>
    <trip id="veh157" depart="45.80" from="1328728780" to="696713575#1" departLane="best" type="veh_passenger"/>
    <trip id="veh158" depart="46.09" from="1328728782#16" to="-169529454#5" departLane="best" type="veh_passenger"/>
    <trip id="veh159" depart="46.39" from="1217118574" to="-119883736#0" departLane="best" type="veh_passenger" departSpeed="max"/>
    <trip id="veh160" depart="46.68" from="694969219#2" to="696615607#1" departLane="best" type="veh_passenger"/>
    <trip id="veh161" depart="46.97" from="-120008935#6" to="694962479#0" departLane="best" type="veh_passenger"/>
    <trip id="veh162" depart="47.26" from="-704831961" to="-696070273" departLane="best" type="veh_passenger" departSpeed="max"/>
    <trip id="veh163" depart="47.55" from="128147843#0" to="-120008963#2" departLane="best" type="veh_passenger"/>
    <trip id="veh164" depart="47.84" from="-119549774#0" to="-120008856#2" departLane="best" type="veh_passenger"/>
    <trip id="veh165" depart="48.14" from="-696303141" to="696713575#1" departLane="best" type="veh_passenger" departSpeed="max"/>
    <trip id="veh166" depart="48.43" from="697824697" to="-483216453#3" departLane="best" type="veh_passenger"/>
    <trip id="veh167" depart="48.72" from="119959609#1" to="-704851526" departLane="best" type="veh_passenger"/>
    <trip id="veh168" depart="49.01" from="700817530" to="119722629#25" departLane="best" type="veh_passenger" departSpeed="max"/>
    <trip id="veh169" depart="49.30" from="697108950#0" to="-119959628#0" departLane="best" type="veh_passenger" departSpeed="max"/>
    <trip id="veh170" depart="49.59" from="697976273" to="-120004351#2" departLane="best" type="veh_passenger"/>
    <trip id="veh171" depart="49.89" from="697824029#2" to="-169529447#0" departLane="best" type="veh_passenger"/>
    <trip id="veh172" depart="50.18" from="-119883716#0" to="101861013#16" departLane="best" type="veh_passenger"/>
    <trip id="veh173" depart="50.47" from="120008862" to="-696613692#0" departLane="best" type="veh_passenger" departSpeed="max"/>
    <trip id="veh174" depart="50.76" from="119722649#2" to="119722575#3" departLane="best" type="veh_passenger"/>
    <trip id="veh175" depart="51.05" from="-696946166#2" to="119883737#1" departLane="best" type="veh_passenger"/>
    <trip id="veh176" depart="51.35" from="-1217118569" to="120026148#2" departLane="best" type="veh_passenger" departSpeed="max"/>
    <trip id="veh177" depart="51.64" from="-1018543317#1" to="697202403" departLane="best" type="veh_passenger"/>
    <trip id="veh178" depart="51.93" from="119549801#0" to="1217118562" departLane="best" type="veh_passenger" departSpeed="max"/>
    <trip id="veh179" depart="52.22" from="-696809795" to="-119722607" departLane="best" type="veh_passenger" departSpeed="max"/>
    <trip id="veh180" depart="52.51" from="120004218#4" to="-696809797#1" departLane="best" type="veh_passenger"/>
    <trip id="veh181" depart="52.80" from="-695545035#4" to="696324104" departLane="best" type="veh_passenger" departSpeed="max"/>
    <trip id="veh182" depart="53.10" from="120004362#4" to="-695545035#3" departLane="best" type="veh_passenger"/>
    <trip id="veh183" depart="53.39" from="-695525779" to="101483104#8" departLane="best" type="veh_passenger"/>
    <trip id="veh184" depart="53.68" from="-697115767#2" to="-695521912#0" departLane="best" type="veh_passenger" departSpeed="max"/>
    <trip id="veh185" depart="53.97" from="-120004173#5" to="101805132#28" departLane="best" type="veh_passenger"/>
    <trip id="veh186" depart="54.26" from="697111825" to="120008893#0" departLane="best" type="veh_passenger" departSpeed="max"/>
    <trip id="veh187" depart="54.55" from="696801818#1" to="120004241#3" departLane="best" type="veh_passenger"/>
    <trip id="veh188" depart="54.85" from="-673198000#4" to="119722650#1" departLane="best" type="veh_passenger"/>
    <trip id="veh189" depart="55.14" from="-1018527522#4" to="-673197990#5" departLane="best" type="veh_passenger"/>
    <trip id="veh190" depart="55.43" from="-697824700#1" to="119884743#3" departLane="best" type="veh_passenger"/>
    <trip id="veh191" depart="55.72" from="120004186#1" to="119396802#5" departLane="best" type="veh_passenger"/>
    <trip id="veh192" depart="56.01" from="-700825526" to="-120008919#1" departLane="best" type="veh_passenger" departSpeed="max"/>
    <trip id="veh193" depart="56.30" from="101483104#2" to="696929348#2" departLane="best" type="veh_passenger"/>
    <trip id="veh194" depart="56.60" from="128147844#2" to="-120004308#2" departLane="best" type="veh_passenger"/>
    <trip id="veh195" depart="56.89" from="-119722642#0" to="119722585#3" departLane="best" type="veh_passenger"/>
    <trip id="veh196" depart="57.18" from="119883735#2" to="-696896205#1" departLane="best" type="veh_passenger"/>
    <trip id="veh197" depart="57.47" from="1461246623#5" to="1328728782#15-AddedOnRampEdge" departLane="best" type="veh_passenger"/>
    <trip id="veh198" depart="57.76" from="120004238#3" to="-120008951#0" departLane="best" type="veh_passenger"/>
    <trip id="veh199" depart="58.05" from="-120008867" to="-119549801#1" departLane="best" type="veh_passenger"/>
    <trip id="veh200" depart="58.35" from="-120026243#2" to="119549804#2" departLane="best" type="veh_passenger" departSpeed="max"/>
    <trip id="veh201" depart="58.64" from="407742559#2" to="-119722624#1" departLane="best" type="veh_passenger"/>
    <trip id="veh202" depart="58.93" from="-697783528#2" to="120004280#5" departLane="best" type="veh_passenger"/>
    <trip id="veh203" depart="59.22" from="-120004370#4" to="120008963#2" departLane="best" type="veh_passenger"/>
    <trip id="veh204" depart="59.51" from="1018527521#2" to="-120026249#1" departLane="best" type="veh_passenger"/>
    <trip id="veh205" depart="59.81" from="120004191#1" to="-117463707#10" departLane="best" type="veh_passenger"/>
    <trip id="veh206" depart="60.10" from="120008931#2" to="169529454#5" departLane="best" type="veh_passenger"/>
    <trip id="veh207" depart="60.39" from="-119883709#1" to="101805146#5" departLane="best" type="veh_passenger"/>
    <trip id="veh208" depart="60.68" from="-120004318#0" to="697976270#0" departLane="best" type="veh_passenger"/>
    <trip id="veh209" depart="60.97" from="117463707#3" to="-119722550#2" departLane="best" type="veh_passenger"/>
    <trip id="veh210" depart="61.26" from="-120026423#1" to="696326306#1" departLane="best" type="veh_passenger"/>
    <trip id="veh211" depart="61.56" from="-702629210#2" to="483216453#1" departLane="best" type="veh_passenger"/>
    <trip id="veh212" depart="61.85" from="120004229#0" to="704831958" departLane="best" type="veh_passenger"/>
    <trip id="veh213" depart="62.14" from="119722629#23-AddedOffRampEdge" to="697824029#5" departLane="best" type="veh_passenger"/>
    <trip id="veh214" depart="62.43" from="696613690#0" to="120004238#11" departLane="best" type="veh_passenger"/>
    <trip id="veh215" depart="62.72" from="120004362#13" to="119722558#0" departLane="best" type="veh_passenger"/>
    <trip id="veh216" depart="63.01" from="169529504#0" to="119722650#1" departLane="best" type="veh_passenger"/>
    <trip id="veh217" depart="63.31" from="696713576#0" to="1328728781#10" departLane="best" type="veh_passenger"/>
    <trip id="veh218" depart="63.60" from="-120026289#1" to="120004305#0" departLane="best" type="veh_passenger" departSpeed="max"/>
    <trip id="veh219" depart="63.89" from="120008971#4" to="119722600#11" departLane="best" type="veh_passenger"/>
    <trip id="veh220" depart="64.18" from="119883721#4" to="-306329084#2" departLane="best" type="veh_passenger"/>
    <trip id="veh221" depart="64.47" from="-119722612#1" to="-673197989#0" departLane="best" type="veh_passenger"/>
    <trip id="veh222" depart="64.76" from="-1430633509" to="-696726967" departLane="best" type="veh_passenger" departSpeed="max"/>
    <trip id="veh223" depart="65.06" from="119549805#0" to="-120004229#1" departLane="best" type="veh_passenger"/>
    <trip id="veh224" depart="65.35" from="-120008968#13" to="120008951#1" departLane="best" type="veh_passenger"/>
    <trip id="veh225" depart="65.64" from="120004344#2" to="-119722594#0" departLane="best" type="veh_passenger"/>
    <trip id="veh226" depart="65.93" from="-697703870" to="119722638#0" departLane="best" type="veh_passenger" departSpeed="max"/>
    <trip id="veh227" depart="66.22" from="-697785872" to="-120008896#1" departLane="best" type="veh_passenger" departSpeed="max"/>
    <trip id="veh228" depart="66.52" from="-697803280" to="697061455#1" departLane="best" type="veh_passenger"/>
    <trip id="veh229" depart="66.81" from="119722600#10" to="120008959#2" departLane="best" type="veh_passenger"/>
    <trip id="veh230" depart="67.10" from="607435744#4" to="169529433#2" departLane="best" type="veh_passenger"/>
    <trip id="veh231" depart="67.39" from="-696917713" to="-117463707#12" departLane="best" type="veh_passenger" departSpeed="max"/>
    <trip id="veh232" depart="67.68" from="-696713578#1" to="1328728782#23" departLane="best" type="veh_passenger"/>
    <trip id="veh233" depart="67.97" from="483216452#2" to="697824136#4" departLane="best" type="veh_passenger"/>
    <trip id="veh234" depart="68.27" from="-697788658" to="1328728781#3" departLane="best" type="veh_passenger"/>
    <trip id="veh235" depart="68.56" from="119683470" to="120004217#7" departLane="best" type="veh_passenger"/>
    <trip id="veh236" depart="68.85" from="-120008932#0" to="-120008933#3" departLane="best" type="veh_passenger"/>
    <trip id="veh237" depart="69.14" from="-698619931#0" to="-119683473#2" departLane="best" type="veh_passenger"/>
    <trip id="veh238" depart="69.43" from="-696336332" to="120008902#1" departLane="best" type="veh_passenger" departSpeed="max"/>
    <trip id="veh239" depart="69.72" from="-697178965#3" to="-120004297" departLane="best" type="veh_passenger"/>
    <trip id="veh240" depart="70.02" from="-797308532" to="-120004191#5" departLane="best" type="veh_passenger"/>
    <trip id="veh241" depart="70.31" from="119883707#2" to="-119549805#21" departLane="best" type="veh_passenger"/>
    <trip id="veh242" depart="70.60" from="-697061469#1" to="119883703#1" departLane="best" type="veh_passenger"/>