<routes>
    <vType id="car" accel="2.6" decel="4.5" sigma="0.5" length="5" minGap="2.5" maxSpeed="11.11" guiShape="passenger"/>
    
    <trip id="veh0" type="car" depart="0" from="L_to_C" to="C_to_T"/>
    <trip id="veh1" type="car" depart="6" from="T_to_C" to="C_to_L"/>
    <trip id="veh2" type="car" depart="12" from="R_to_C" to="C_to_B"/>
    <trip id="veh3" type="car" depart="18" from="L_to_C" to="C_to_T"/>
    <trip id="veh4" type="car" depart="24" from="L_to_C" to="C_to_T"/>
    <trip id="veh5" type="car" depart="30" from="R_to_C" to="C_to_B"/>
    <trip id="veh6" type="car" depart="36" from="L_to_C" to="C_to_T"/>
    <trip id="veh7" type="car" depart="42" from="B_to_C" to="C_to_R"/>
    <trip id="veh8" type="car" depart="48" from="T_to_C" to="C_to_L"/>
    <trip id="veh9" type="car" depart="54" from="R_to_C" to="C_to_T"/>
    <trip id="veh10" type="car" depart="60" from="T_to_C" to="C_to_L"/>
    <trip id="veh11" type="car" depart="63" from="T_to_C" to="C_to_L"/>
    <trip id="veh12" type="car" depart="66" from="B_to_C" to="C_to_R"/>
    <trip id="veh13" type="car" depart="69" from="T_to_C" to="C_to_L"/>
    <trip id="veh14" type="car" depart="72" from="B_to_C" to="C_to_R"/>
    <trip id="veh15" type="car" depart="75" from="B_to_C" to="C_to_R"/>
    <trip id="veh16" type="car" depart="78" from="T_to_C" to="C_to_B"/>
    <trip id="veh17" type="car" depart="81" from="T_to_C" to="C_to_L"/>
    <trip id="veh18" type="car" depart="84" from="L_to_C" to="C_to_T"/>
    <trip id="veh19" type="car" depart="87" from="R_to_C" to="C_to_L"/>
    <trip id="veh20" type="car" depart="90" from="R_to_C" to="C_to_T"/>
    <trip id="veh21" type="car" depart="93" from="T_to_C" to="C_to_L"/>
    <trip id="veh22" type="car" depart="96" from="T_to_C" to="C_to_L"/>
    <trip id="veh23" type="car" depart="99" from="T_to_C" to="C_to_L"/>
    <trip id="veh24" type="car" depart="102" from="T_to_C" to="C_to_B"/>
    <trip id="veh25" type="car" depart="105" from="L_to_C" to="C_to_R"/>
    <trip id="veh26" type="car" depart="108" from="R_to_C" to="C_to_B"/>
    <trip id="veh27" type="car" depart="111" from="B_to_C" to="C_to_R"/>
    <trip id="veh28" type="car" depart="114" from="R_to_C" to="C_to_L"/>
    <trip id="veh29" type="car" depart="117" from="R_to_C" to="C_to_T"/>
    <trip id="veh30" type="car" depart="120" from="B_to_C" to="C_to_R"/>
    <trip id="veh31" type="car" depart="121" from="R_to_C" to="C_to_B"/>
    <trip id="veh32" type="car" depart="122" from="T_to_C" to="C_to_L"/>
    <trip id="veh33" type="car" depart="123" from="B_to_C" to="C_to_R"/>
    <trip id="veh34" type="car" depart="124" from="B_to_C" to="C_to_R"/>
    <trip id="veh35" type="car" depart="125" from="R_to_C" to="C_to_B"/>
    <trip id="veh36" type="car" depart="126" from="T_to_C" to="C_to_R"/>
    <trip id="veh37" type="car" depart="127" from="B_to_C" to="C_to_R"/>
    <trip id="veh38" type="car" depart="128" from="R_to_C" to="C_to_B"/>
    <trip id="veh39" type="car" depart="129" from="L_to_C" to="C_to_R"/>
    <trip id="veh40" type="car" depart="130" from="R_to_C" to="C_to_B"/>
    <trip id="veh41" type="car" depart="131" from="B_to_C" to="C_to_R"/>
    <trip id="veh42" type="car" depart="132" from="B_to_C" to="C_to_R"/>
    <trip id="veh43" type="car" depart="133" from="B_to_C" to="C_to_R"/>
    <trip id="veh44" type="car" depart="134" from="L_to_C" to="C_to_R"/>
    <trip id="veh45" type="car" depart="135" from="T_to_C" to="C_to_R"/>
    <trip id="veh46" type="car" depart="136" from="L_to_C" to="C_to_T"/>
    <trip id="veh47" type="car" depart="137" from="R_to_C" to="C_to_B"/>
    <trip id="veh48" type="car" depart="138" from="T_to_C" to="C_to_L"/>
    <trip id="veh49" type="car" depart="139" from="L_to_C" to="C_to_T"/>
    <trip id="veh50" type="car" depart="140" from="R_to_C" to="C_to_B"/>
    <trip id="veh51" type="car" depart="141" from="R_to_C" to="C_to_B"/>
    <trip id="veh52" type="car" depart="142" from="L_to_C" to="C_to_T"/>
    <trip id="veh53" type="car" depart="143" from="B_to_C" to="C_to_R"/>
    <trip id="veh54" type="car" depart="144" from="T_to_C" to="C_to_R"/>
    <trip id="veh55" type="car" depart="145" from="R_to_C" to="C_to_B"/>
    <trip id="veh56" type="car" depart="146" from="L_to_C" to="C_to_T"/>
    <trip id="veh57" type="car" depart="147" from="B_to_C" to="C_to_T"/>
    <trip id="veh58" type="car" depart="148" from="R_to_C" to="C_to_B"/>
    <trip id="veh59" type="car" depart="149" from="B_to_C" to="C_to_L"/>
    <trip id="veh60" type="car" depart="150" from="T_to_C" to="C_to_L"/>
    <trip id="veh61" type="car" depart="151" from="B_to_C" to="C_to_T"/>
    <trip id="veh62" type="car" depart="152" from="R_to_C" to="C_to_T"/>
    <trip id="veh63" type="car" depart="153" from="T_to_C" to="C_to_L"/>
    <trip id="veh64" type="car" depart="154" from="B_to_C" to="C_to_R"/>
    <trip id="veh65" type="car" depart="155" from="R_to_C" to="C_to_B"/>
    <trip id="veh66" type="car" depart="156" from="L_to_C" to="C_to_T"/>
    <trip id="veh67" type="car" depart="157" from="R_to_C" to="C_to_B"/>
    <trip id="veh68" type="car" depart="158" from="L_to_C" to="C_to_T"/>
    <trip id="veh69" type="car" depart="159" from="L_to_C" to="C_to_T"/>
    <trip id="veh70" type="car" depart="160" from="L_to_C" to="C_to_R"/>
    <trip id="veh71" type="car" depart="161" from="R_to_C" to="C_to_B"/>
    <trip id="veh72" type="car" depart="162" from="B_to_C" to="C_to_R"/>
    <trip id="veh73" type="car" depart="163" from="R_to_C" to="C_to_B"/>
    <trip id="veh74" type="car" depart="164" from="B_to_C" to="C_to_R"/>
    <trip id="veh75" type="car" depart="165" from="B_to_C" to="C_to_L"/>
    <trip id="veh76" type="car" depart="166" from="L_to_C" to="C_to_T"/>
    <trip id="veh77" type="car" depart="167" from="B_to_C" to="C_to_R"/>
    <trip id="veh78" type="car" depart="168" from="B_to_C" to="C_to_R"/>
    <trip id="veh79" type="car" depart="169" from="L_to_C" to="C_to_B"/>
    <trip id="veh80" type="car" depart="170" from="L_to_C" to="C_to_T"/>
    <trip id="veh81" type="car" depart="171" from="T_to_C" to="C_to_L"/>
    <trip id="veh82" type="car" depart="172" from="R_to_C" to="C_to_B"/>
    <trip id="veh83" type="car" depart="173" from="B_to_C" to="C_to_R"/>
    <trip id="veh84" type="car" depart="174" from="R_to_C" to="C_to_B"/>
    <trip id="veh85" type="car" depart="175" from="R_to_C" to="C_to_L"/>
    <trip id="veh86" type="car" depart="176" from="B_to_C" to="C_to_T"/>
    <trip id="veh87" type="car" depart="177" from="L_to_C" to="C_to_T"/>
    <trip id="veh88" type="car" depart="178" from="L_to_C" to="C_to_R"/>
    <trip id="veh89" type="car" depart="179" from="R_to_C" to="C_to_B"/>
</routes>
