<nodes>
    <node id="center" x="0.0" y="0.0" type="traffic_light"/>
    <node id="top" x="0.0" y="150.0"/>
    <node id="bottom" x="0.0" y="-150.0"/>
    <node id="left" x="-150.0" y="0.0"/>
    <node id="right" x="150.0" y="0.0"/>
</nodes>