<?xml version="1.0" encoding="UTF-8"?>

<!-- generated on 2026-04-28T20:54:39.496098+03:00 by Eclipse SUMO netconvert 1.26.0
<netconvertConfiguration xmlns:xsi="http://www.w3.org/2001/XMLSchema-instance" xsi:noNamespaceSchemaLocation="http://sumo.dlr.de/xsd/netconvertConfiguration.xsd">

    <input>
        <node-files value="intersection.nod.xml"/>
        <edge-files value="intersection.edg.xml"/>
    </input>

    <output>
        <output-file value="intersection.net.xml"/>
    </output>

</netconvertConfiguration>
-->

<net version="1.20" junctionCornerDetail="5" limitTurnSpeed="5.50" xmlns:xsi="http://www.w3.org/2001/XMLSchema-instance" xsi:noNamespaceSchemaLocation="http://sumo.dlr.de/xsd/net_file.xsd">

    <location netOffset="150.00,150.00" convBoundary="0.00,0.00,300.00,300.00" origBoundary="-150.00,-150.00,150.00,150.00" projParameter="!"/>

    <edge id=":bottom_0" function="internal">
        <lane id=":bottom_0_0" index="0" speed="3.65" length="4.67" shape="148.40,0.00 149.20,-1.20 150.00,-1.60 150.80,-1.20 151.60,0.00"/>
    </edge>
    <edge id=":center_0" function="internal">
        <lane id=":center_0_0" index="0" speed="6.51" length="9.03" shape="145.20,160.40 144.85,157.95 143.80,156.20 142.05,155.15 139.60,154.80"/>
    </edge>
    <edge id=":center_1" function="internal">
        <lane id=":center_1_0" index="0" speed="11.11" length="20.80" shape="145.20,160.40 145.20,139.60"/>
        <lane id=":center_1_1" index="1" speed="11.11" length="20.80" shape="148.40,160.40 148.40,139.60"/>
    </edge>
    <edge id=":center_3" function="internal">
        <lane id=":center_3_0" index="0" speed="9.26" length="5.01" shape="148.40,160.40 149.11,155.44"/>
    </edge>
    <edge id=":center_4" function="internal">
        <lane id=":center_4_0" index="0" speed="3.65" length="1.44" shape="148.40,160.40 149.20,159.20"/>
    </edge>
    <edge id=":center_20" function="internal">
        <lane id=":center_20_0" index="0" speed="9.26" length="14.34" shape="149.11,155.44 149.15,155.15 151.40,151.40 155.15,149.15 160.40,148.40"/>
    </edge>
    <edge id=":center_21" function="internal">
        <lane id=":center_21_0" index="0" speed="3.65" length="3.23" shape="149.20,159.20 150.00,158.80 150.80,159.20 151.60,160.40"/>
    </edge>
    <edge id=":center_5" function="internal">
        <lane id=":center_5_0" index="0" speed="6.51" length="9.03" shape="160.40,154.80 157.95,155.15 156.20,156.20 155.15,157.95 154.80,160.40"/>
    </edge>
    <edge id=":center_6" function="internal">
        <lane id=":center_6_0" index="0" speed="11.11" length="20.80" shape="160.40,154.80 139.60,154.80"/>
        <lane id=":center_6_1" index="1" speed="11.11" length="20.80" shape="160.40,151.60 139.60,151.60"/>
    </edge>
    <edge id=":center_8" function="internal">
        <lane id=":center_8_0" index="0" speed="9.26" length="5.01" shape="160.40,151.60 155.44,150.89"/>
    </edge>
    <edge id=":center_9" function="internal">
        <lane id=":center_9_0" index="0" speed="3.65" length="1.44" shape="160.40,151.60 159.20,150.80"/>
    </edge>
    <edge id=":center_22" function="internal">
        <lane id=":center_22_0" index="0" speed="9.26" length="14.34" shape="155.44,150.89 155.15,150.85 151.40,148.60 149.15,144.85 148.40,139.60"/>
    </edge>
    <edge id=":center_23" function="internal">
        <lane id=":center_23_0" index="0" speed="3.65" length="3.23" shape="159.20,150.80 158.80,150.00 159.20,149.20 160.40,148.40"/>
    </edge>
    <edge id=":center_10" function="internal">
        <lane id=":center_10_0" index="0" speed="6.51" length="9.03" shape="154.80,139.60 155.15,142.05 156.20,143.80 157.95,144.85 160.40,145.20"/>
    </edge>
    <edge id=":center_11" function="internal">
        <lane id=":center_11_0" index="0" speed="11.11" length="20.80" shape="154.80,139.60 154.80,160.40"/>
        <lane id=":center_11_1" index="1" speed="11.11" length="20.80" shape="151.60,139.60 151.60,160.40"/>
    </edge>
    <edge id=":center_13" function="internal">
        <lane id=":center_13_0" index="0" speed="9.26" length="5.01" shape="151.60,139.60 150.89,144.56"/>
    </edge>
    <edge id=":center_14" function="internal">
        <lane id=":center_14_0" index="0" speed="3.65" length="1.44" shape="151.60,139.60 150.80,140.80"/>
    </edge>
    <edge id=":center_24" function="internal">
        <lane id=":center_24_0" index="0" speed="9.26" length="14.34" shape="150.89,144.56 150.85,144.85 148.60,148.60 144.85,150.85 139.60,151.60"/>
    </edge>
    <edge id=":center_25" function="internal">
        <lane id=":center_25_0" index="0" speed="3.65" length="3.23" shape="150.80,140.80 150.00,141.20 149.20,140.80 148.40,139.60"/>
    </edge>
    <edge id=":center_15" function="internal">
        <lane id=":center_15_0" index="0" speed="6.51" length="9.03" shape="139.60,145.20 142.05,144.85 143.80,143.80 144.85,142.05 145.20,139.60"/>
    </edge>
    <edge id=":center_16" function="internal">
        <lane id=":center_16_0" index="0" speed="11.11" length="20.80" shape="139.60,145.20 160.40,145.20"/>
        <lane id=":center_16_1" index="1" speed="11.11" length="20.80" shape="139.60,148.40 160.40,148.40"/>
    </edge>
    <edge id=":center_18" function="internal">
        <lane id=":center_18_0" index="0" speed="9.26" length="5.01" shape="139.60,148.40 144.56,149.11"/>
    </edge>
    <edge id=":center_19" function="internal">
        <lane id=":center_19_0" index="0" speed="3.65" length="1.44" shape="139.60,148.40 140.80,149.20"/>
    </edge>
    <edge id=":center_26" function="internal">
        <lane id=":center_26_0" index="0" speed="9.26" length="14.34" shape="144.56,149.11 144.85,149.15 148.60,151.40 150.85,155.15 151.60,160.40"/>
    </edge>
    <edge id=":center_27" function="internal">
        <lane id=":center_27_0" index="0" speed="3.65" length="3.23" shape="140.80,149.20 141.20,150.00 140.80,150.80 139.60,151.60"/>
    </edge>
    <edge id=":left_0" function="internal">
        <lane id=":left_0_0" index="0" speed="3.65" length="4.67" shape="0.00,151.60 -1.20,150.80 -1.60,150.00 -1.20,149.20 0.00,148.40"/>
    </edge>
    <edge id=":right_0" function="internal">
        <lane id=":right_0_0" index="0" speed="3.65" length="4.67" shape="300.00,148.40 301.20,149.20 301.60,150.00 301.20,150.80 300.00,151.60"/>
    </edge>
    <edge id=":top_0" function="internal">
        <lane id=":top_0_0" index="0" speed="3.65" length="4.67" shape="151.60,300.00 150.80,301.20 150.00,301.60 149.20,301.20 148.40,300.00"/>
    </edge>

    <edge id="B_to_C" from="bottom" to="center" priority="-1">
        <lane id="B_to_C_0" index="0" speed="11.11" length="139.60" shape="154.80,0.00 154.80,139.60"/>
        <lane id="B_to_C_1" index="1" speed="11.11" length="139.60" shape="151.60,0.00 151.60,139.60"/>
    </edge>
    <edge id="C_to_B" from="center" to="bottom" priority="-1">
        <lane id="C_to_B_0" index="0" speed="11.11" length="139.60" shape="145.20,139.60 145.20,0.00"/>
        <lane id="C_to_B_1" index="1" speed="11.11" length="139.60" shape="148.40,139.60 148.40,0.00"/>
    </edge>
    <edge id="C_to_L" from="center" to="left" priority="-1">
        <lane id="C_to_L_0" index="0" speed="11.11" length="139.60" shape="139.60,154.80 0.00,154.80"/>
        <lane id="C_to_L_1" index="1" speed="11.11" length="139.60" shape="139.60,151.60 0.00,151.60"/>
    </edge>
    <edge id="C_to_R" from="center" to="right" priority="-1">
        <lane id="C_to_R_0" index="0" speed="11.11" length="139.60" shape="160.40,145.20 300.00,145.20"/>
        <lane id="C_to_R_1" index="1" speed="11.11" length="139.60" shape="160.40,148.40 300.00,148.40"/>
    </edge>
    <edge id="C_to_T" from="center" to="top" priority="-1">
        <lane id="C_to_T_0" index="0" speed="11.11" length="139.60" shape="154.80,160.40 154.80,300.00"/>
        <lane id="C_to_T_1" index="1" speed="11.11" length="139.60" shape="151.60,160.40 151.60,300.00"/>
    </edge>
    <edge id="L_to_C" from="left" to="center" priority="-1">
        <lane id="L_to_C_0" index="0" speed="11.11" length="139.60" shape="0.00,145.20 139.60,145.20"/>
        <lane id="L_to_C_1" index="1" speed="11.11" length="139.60" shape="0.00,148.40 139.60,148.40"/>
    </edge>
    <edge id="R_to_C" from="right" to="center" priority="-1">
        <lane id="R_to_C_0" index="0" speed="11.11" length="139.60" shape="300.00,154.80 160.40,154.80"/>
        <lane id="R_to_C_1" index="1" speed="11.11" length="139.60" shape="300.00,151.60 160.40,151.60"/>
    </edge>
    <edge id="T_to_C" from="top" to="center" priority="-1">
        <lane id="T_to_C_0" index="0" speed="11.11" length="139.60" shape="145.20,300.00 145.20,160.40"/>
        <lane id="T_to_C_1" index="1" speed="11.11" length="139.60" shape="148.40,300.00 148.40,160.40"/>
    </edge>

    <tlLogic id="center" type="static" programID="0" offset="0">
        <phase duration="42" state="GGGggrrrrrGGGggrrrrr"/>
        <phase duration="3"  state="yyyyyrrrrryyyyyrrrrr"/>
        <phase duration="42" state="rrrrrGGGggrrrrrGGGgg"/>
        <phase duration="3"  state="rrrrryyyyyrrrrryyyyy"/>
    </tlLogic>

    <junction id="bottom" type="priority" x="150.00" y="0.00" incLanes="C_to_B_0 C_to_B_1" intLanes=":bottom_0_0" shape="150.00,0.00 143.60,0.00 150.00,0.00">
        <request index="0" response="0" foes="0" cont="0"/>
    </junction>
    <junction id="center" type="traffic_light" x="150.00" y="150.00" incLanes="T_to_C_0 T_to_C_1 R_to_C_0 R_to_C_1 B_to_C_0 B_to_C_1 L_to_C_0 L_to_C_1" intLanes=":center_0_0 :center_1_0 :center_1_1 :center_20_0 :center_21_0 :center_5_0 :center_6_0 :center_6_1 :center_22_0 :center_23_0 :center_10_0 :center_11_0 :center_11_1 :center_24_0 :center_25_0 :center_15_0 :center_16_0 :center_16_1 :center_26_0 :center_27_0" shape="143.60,160.40 156.40,160.40 156.84,158.18 157.40,157.40 158.18,156.84 159.18,156.51 160.40,156.40 160.40,143.60 158.18,143.16 157.40,142.60 156.84,141.82 156.51,140.82 156.40,139.60 143.60,139.60 143.16,141.82 142.60,142.60 141.82,143.16 140.82,143.49 139.60,143.60 139.60,156.40 141.82,156.84 142.60,157.40 143.16,158.18 143.49,159.18">
        <request index="0"  response="00000000000000000000" foes="00000000000011000000" cont="0"/>
        <request index="1"  response="01000000000000000000" foes="01111110000111000000" cont="0"/>
        <request index="2"  response="01000000000100000000" foes="01111110000111000000" cont="0"/>
        <request index="3"  response="01000001100100000000" foes="01110001101111000000" cont="1"/>
        <request index="4"  response="01000001100000000000" foes="01000001100000000000" cont="1"/>
        <request index="5"  response="00000001100000000000" foes="00000001100000000000" cont="0"/>
        <request index="6"  response="00000011100000001111" foes="11000011100000001111" cont="0"/>
        <request index="7"  response="00000011100000001111" foes="11000011100000001111" cont="0"/>
        <request index="8"  response="00110011100000001110" foes="00110111100000001110" cont="1"/>
        <request index="9"  response="00110000000000001000" foes="00110000000000001000" cont="1"/>
        <request index="10" response="00000000000000000000" foes="00110000000000000000" cont="0"/>
        <request index="11" response="00000000000100000000" foes="01110000000111111000" cont="0"/>
        <request index="12" response="01000000000100000000" foes="01110000000111111000" cont="0"/>
        <request index="13" response="01000000000100000110" foes="11110000000111000110" cont="1"/>
        <request index="14" response="00000000000100000110" foes="00000000000100000110" cont="1"/>
        <request index="15" response="00000000000000000110" foes="00000000000000000110" cont="0"/>
        <request index="16" response="00000011110000001110" foes="00000011111100001110" cont="0"/>
        <request index="17" response="00000011110000001110" foes="00000011111100001110" cont="0"/>
        <request index="18" response="00000011100011001110" foes="00000011100011011110" cont="1"/>
        <request index="19" response="00000010000011000000" foes="00000010000011000000" cont="1"/>
    </junction>
    <junction id="left" type="priority" x="0.00" y="150.00" incLanes="C_to_L_0 C_to_L_1" intLanes=":left_0_0" shape="0.00,150.00 0.00,156.40 0.00,150.00">
        <request index="0" response="0" foes="0" cont="0"/>
    </junction>
    <junction id="right" type="priority" x="300.00" y="150.00" incLanes="C_to_R_0 C_to_R_1" intLanes=":right_0_0" shape="300.00,150.00 300.00,143.60 300.00,150.00">
        <request index="0" response="0" foes="0" cont="0"/>
    </junction>
    <junction id="top" type="priority" x="150.00" y="300.00" incLanes="C_to_T_0 C_to_T_1" intLanes=":top_0_0" shape="150.00,300.00 156.40,300.00 150.00,300.00">
        <request index="0" response="0" foes="0" cont="0"/>
    </junction>

    <junction id=":center_20_0" type="internal" x="149.11" y="155.44" incLanes=":center_3_0 B_to_C_0 B_to_C_1" intLanes=":center_6_0 :center_6_1 :center_8_0 :center_9_0 :center_10_0 :center_11_0 :center_11_1 :center_16_0 :center_16_1 :center_18_0"/>
    <junction id=":center_21_0" type="internal" x="149.20" y="159.20" incLanes=":center_4_0 B_to_C_0 B_to_C_1 L_to_C_1 R_to_C_0" intLanes=":center_5_0 :center_11_0 :center_11_1 :center_18_0"/>
    <junction id=":center_22_0" type="internal" x="155.44" y="150.89" incLanes=":center_8_0 L_to_C_0 L_to_C_1" intLanes=":center_1_0 :center_1_1 :center_3_0 :center_11_0 :center_11_1 :center_13_0 :center_14_0 :center_15_0 :center_16_0 :center_16_1"/>
    <junction id=":center_23_0" type="internal" x="159.20" y="150.80" incLanes=":center_9_0 B_to_C_0 L_to_C_0 L_to_C_1 T_to_C_1" intLanes=":center_3_0 :center_10_0 :center_16_0 :center_16_1"/>
    <junction id=":center_24_0" type="internal" x="150.89" y="144.56" incLanes=":center_13_0 T_to_C_0 T_to_C_1" intLanes=":center_0_0 :center_1_0 :center_1_1 :center_6_0 :center_6_1 :center_8_0 :center_16_0 :center_16_1 :center_18_0 :center_19_0"/>
    <junction id=":center_25_0" type="internal" x="150.80" y="140.80" incLanes=":center_14_0 L_to_C_0 R_to_C_1 T_to_C_0 T_to_C_1" intLanes=":center_1_0 :center_1_1 :center_8_0 :center_15_0"/>
    <junction id=":center_26_0" type="internal" x="144.56" y="149.11" incLanes=":center_18_0 R_to_C_0 R_to_C_1" intLanes=":center_1_0 :center_1_1 :center_3_0 :center_4_0 :center_5_0 :center_6_0 :center_6_1 :center_11_0 :center_11_1 :center_13_0"/>
    <junction id=":center_27_0" type="internal" x="140.80" y="149.20" incLanes=":center_19_0 B_to_C_1 R_to_C_0 R_to_C_1 T_to_C_0" intLanes=":center_0_0 :center_6_0 :center_6_1 :center_13_0"/>

    <connection from="B_to_C" to="C_to_R" fromLane="0" toLane="0" via=":center_10_0" tl="center" linkIndex="10" dir="r" state="O"/>
    <connection from="B_to_C" to="C_to_T" fromLane="0" toLane="0" via=":center_11_0" tl="center" linkIndex="11" dir="s" state="O"/>
    <connection from="B_to_C" to="C_to_T" fromLane="1" toLane="1" via=":center_11_1" tl="center" linkIndex="12" dir="s" state="O"/>
    <connection from="B_to_C" to="C_to_L" fromLane="1" toLane="1" via=":center_13_0" tl="center" linkIndex="13" dir="l" state="o"/>
    <connection from="B_to_C" to="C_to_B" fromLane="1" toLane="1" via=":center_14_0" tl="center" linkIndex="14" dir="t" state="o"/>
    <connection from="C_to_B" to="B_to_C" fromLane="1" toLane="1" via=":bottom_0_0" dir="t" state="M"/>
    <connection from="C_to_L" to="L_to_C" fromLane="1" toLane="1" via=":left_0_0" dir="t" state="M"/>
    <connection from="C_to_R" to="R_to_C" fromLane="1" toLane="1" via=":right_0_0" dir="t" state="M"/>
    <connection from="C_to_T" to="T_to_C" fromLane="1" toLane="1" via=":top_0_0" dir="t" state="M"/>
    <connection from="L_to_C" to="C_to_B" fromLane="0" toLane="0" via=":center_15_0" tl="center" linkIndex="15" dir="r" state="o"/>
    <connection from="L_to_C" to="C_to_R" fromLane="0" toLane="0" via=":center_16_0" tl="center" linkIndex="16" dir="s" state="o"/>
    <connection from="L_to_C" to="C_to_R" fromLane="1" toLane="1" via=":center_16_1" tl="center" linkIndex="17" dir="s" state="o"/>
    <connection from="L_to_C" to="C_to_T" fromLane="1" toLane="1" via=":center_18_0" tl="center" linkIndex="18" dir="l" state="o"/>
    <connection from="L_to_C" to="C_to_L" fromLane="1" toLane="1" via=":center_19_0" tl="center" linkIndex="19" dir="t" state="o"/>
    <connection from="R_to_C" to="C_to_T" fromLane="0" toLane="0" via=":center_5_0" tl="center" linkIndex="5" dir="r" state="o"/>
    <connection from="R_to_C" to="C_to_L" fromLane="0" toLane="0" via=":center_6_0" tl="center" linkIndex="6" dir="s" state="o"/>
    <connection from="R_to_C" to="C_to_L" fromLane="1" toLane="1" via=":center_6_1" tl="center" linkIndex="7" dir="s" state="o"/>
    <connection from="R_to_C" to="C_to_B" fromLane="1" toLane="1" via=":center_8_0" tl="center" linkIndex="8" dir="l" state="o"/>
    <connection from="R_to_C" to="C_to_R" fromLane="1" toLane="1" via=":center_9_0" tl="center" linkIndex="9" dir="t" state="o"/>
    <connection from="T_to_C" to="C_to_L" fromLane="0" toLane="0" via=":center_0_0" tl="center" linkIndex="0" dir="r" state="O"/>
    <connection from="T_to_C" to="C_to_B" fromLane="0" toLane="0" via=":center_1_0" tl="center" linkIndex="1" dir="s" state="O"/>
    <connection from="T_to_C" to="C_to_B" fromLane="1" toLane="1" via=":center_1_1" tl="center" linkIndex="2" dir="s" state="O"/>
    <connection from="T_to_C" to="C_to_R" fromLane="1" toLane="1" via=":center_3_0" tl="center" linkIndex="3" dir="l" state="o"/>
    <connection from="T_to_C" to="C_to_T" fromLane="1" toLane="1" via=":center_4_0" tl="center" linkIndex="4" dir="t" state="o"/>

    <connection from=":bottom_0" to="B_to_C" fromLane="0" toLane="1" dir="t" state="M"/>
    <connection from=":center_0" to="C_to_L" fromLane="0" toLane="0" dir="r" state="M"/>
    <connection from=":center_1" to="C_to_B" fromLane="0" toLane="0" dir="s" state="M"/>
    <connection from=":center_1" to="C_to_B" fromLane="1" toLane="1" dir="s" state="M"/>
    <connection from=":center_3" to="C_to_R" fromLane="0" toLane="1" via=":center_20_0" dir="l" state="m"/>
    <connection from=":center_20" to="C_to_R" fromLane="0" toLane="1" dir="l" state="M"/>
    <connection from=":center_4" to="C_to_T" fromLane="0" toLane="1" via=":center_21_0" dir="t" state="m"/>
    <connection from=":center_21" to="C_to_T" fromLane="0" toLane="1" dir="t" state="M"/>
    <connection from=":center_5" to="C_to_T" fromLane="0" toLane="0" dir="r" state="M"/>
    <connection from=":center_6" to="C_to_L" fromLane="0" toLane="0" dir="s" state="M"/>
    <connection from=":center_6" to="C_to_L" fromLane="1" toLane="1" dir="s" state="M"/>
    <connection from=":center_8" to="C_to_B" fromLane="0" toLane="1" via=":center_22_0" dir="l" state="m"/>
    <connection from=":center_22" to="C_to_B" fromLane="0" toLane="1" dir="l" state="M"/>
    <connection from=":center_9" to="C_to_R" fromLane="0" toLane="1" via=":center_23_0" dir="t" state="m"/>
    <connection from=":center_23" to="C_to_R" fromLane="0" toLane="1" dir="t" state="M"/>
    <connection from=":center_10" to="C_to_R" fromLane="0" toLane="0" dir="r" state="M"/>
    <connection from=":center_11" to="C_to_T" fromLane="0" toLane="0" dir="s" state="M"/>
    <connection from=":center_11" to="C_to_T" fromLane="1" toLane="1" dir="s" state="M"/>
    <connection from=":center_13" to="C_to_L" fromLane="0" toLane="1" via=":center_24_0" dir="l" state="m"/>
    <connection from=":center_24" to="C_to_L" fromLane="0" toLane="1" dir="l" state="M"/>
    <connection from=":center_14" to="C_to_B" fromLane="0" toLane="1" via=":center_25_0" dir="t" state="m"/>
    <connection from=":center_25" to="C_to_B" fromLane="0" toLane="1" dir="t" state="M"/>
    <connection from=":center_15" to="C_to_B" fromLane="0" toLane="0" dir="r" state="M"/>
    <connection from=":center_16" to="C_to_R" fromLane="0" toLane="0" dir="s" state="M"/>
    <connection from=":center_16" to="C_to_R" fromLane="1" toLane="1" dir="s" state="M"/>
    <connection from=":center_18" to="C_to_T" fromLane="0" toLane="1" via=":center_26_0" dir="l" state="m"/>
    <connection from=":center_26" to="C_to_T" fromLane="0" toLane="1" dir="l" state="M"/>
    <connection from=":center_19" to="C_to_L" fromLane="0" toLane="1" via=":center_27_0" dir="t" state="m"/>
    <connection from=":center_27" to="C_to_L" fromLane="0" toLane="1" dir="t" state="M"/>
    <connection from=":left_0" to="L_to_C" fromLane="0" toLane="1" dir="t" state="M"/>
    <connection from=":right_0" to="R_to_C" fromLane="0" toLane="1" dir="t" state="M"/>
    <connection from=":top_0" to="T_to_C" fromLane="0" toLane="1" dir="t" state="M"/>

</net>
