<additional>

    <inductionLoop id="RSU_01_START" lane="L_to_C_0" pos="10" freq="1" file="out.xml"/>
    <inductionLoop id="RSU_01_END"   lane="L_to_C_0" pos="130" freq="1" file="out.xml"/>

    <inductionLoop id="RSU_02_START" lane="R_to_C_0" pos="10" freq="1" file="out.xml"/>
    <inductionLoop id="RSU_02_END"   lane="R_to_C_0" pos="130" freq="1" file="out.xml"/>

    <inductionLoop id="RSU_03_START" lane="T_to_C_0" pos="10" freq="1" file="out.xml"/>
    <inductionLoop id="RSU_03_END"   lane="T_to_C_0" pos="130" freq="1" file="out.xml"/>

    <inductionLoop id="RSU_04_START" lane="B_to_C_0" pos="10" freq="1" file="out.xml"/>
    <inductionLoop id="RSU_04_END"   lane="B_to_C_0" pos="130" freq="1" file="out.xml"/>

</additional>