<?xml version="1.0" encoding="UTF-8"?>

<!-- generated on 2026-06-16T03:25:15.877358+03:00 by Eclipse SUMO netconvert 1.27.0
<netconvertConfiguration xmlns:xsi="http://www.w3.org/2001/XMLSchema-instance" xsi:noNamespaceSchemaLocation="http://sumo.dlr.de/xsd/netconvertConfiguration.xsd">

    <input>
        <node-files value="intersection.nod.xml"/>
        <edge-files value="intersection.edg.xml"/>
    </input>

    <output>
        <output-file value="intersection.net.xml"/>
    </output>

</netconvertConfiguration>
-->

<net version="1.20" junctionCornerDetail="5" limitTurnSpeed="5.50" xmlns:xsi="http://www.w3.org/2001/XMLSchema-instance" xsi:noNamespaceSchemaLocation="http://sumo.dlr.de/xsd/net_file.xsd">

    <location netOffset="150.00,150.00" convBoundary="0.00,0.00,300.00,300.00" origBoundary="-150.00,-150.00,150.00,150.00" projParameter="!"/>

    <edge id=":bottom_0" function="internal">
        <lane id=":bottom_0_0" index="0" speed="3.65" length="4.67" shape="148.40,0.00 149.20,-1.20 150.00,-1.60 150.80,-1.20 151.60,0.00"/>
    </edge>
    <edge id=":center_0" function="internal">
        <lane id=":center_0_0" index="0" speed="6.51" length="9.03" shape="148.40,157.20 148.05,154.75 147.00,153.00 145.25,151.95 142.80,151.60"/>
    </edge>
    <edge id=":center_1" function="internal">
        <lane id=":center_1_0" index="0" speed="11.11" length="14.40" shape="148.40,157.20 148.40,142.80"/>
    </edge>
    <edge id=":center_2" function="internal">
        <lane id=":center_2_0" index="0" speed="8.00" length="4.07" shape="148.40,157.20 148.95,153.35 149.04,153.20"/>
    </edge>
    <edge id=":center_3" function="internal">
        <lane id=":center_3_0" index="0" speed="3.65" length="1.44" shape="148.40,157.20 149.20,156.00"/>
    </edge>
    <edge id=":center_16" function="internal">
        <lane id=":center_16_0" index="0" speed="8.00" length="10.13" shape="149.04,153.20 150.60,150.60 153.35,148.95 157.20,148.40"/>
    </edge>
    <edge id=":center_17" function="internal">
        <lane id=":center_17_0" index="0" speed="3.65" length="3.23" shape="149.20,156.00 150.00,155.60 150.80,156.00 151.60,157.20"/>
    </edge>
    <edge id=":center_4" function="internal">
        <lane id=":center_4_0" index="0" speed="6.51" length="9.03" shape="157.20,151.60 154.75,151.95 153.00,153.00 151.95,154.75 151.60,157.20"/>
    </edge>
    <edge id=":center_5" function="internal">
        <lane id=":center_5_0" index="0" speed="11.11" length="14.40" shape="157.20,151.60 142.80,151.60"/>
    </edge>
    <edge id=":center_6" function="internal">
        <lane id=":center_6_0" index="0" speed="8.00" length="4.07" shape="157.20,151.60 153.35,151.05 153.20,150.96"/>
    </edge>
    <edge id=":center_7" function="internal">
        <lane id=":center_7_0" index="0" speed="3.65" length="1.44" shape="157.20,151.60 156.00,150.80"/>
    </edge>
    <edge id=":center_18" function="internal">
        <lane id=":center_18_0" index="0" speed="8.00" length="10.13" shape="153.20,150.96 150.60,149.40 148.95,146.65 148.40,142.80"/>
    </edge>
    <edge id=":center_19" function="internal">
        <lane id=":center_19_0" index="0" speed="3.65" length="3.23" shape="156.00,150.80 155.60,150.00 156.00,149.20 157.20,148.40"/>
    </edge>
    <edge id=":center_8" function="internal">
        <lane id=":center_8_0" index="0" speed="6.51" length="9.03" shape="151.60,142.80 151.95,145.25 153.00,147.00 154.75,148.05 157.20,148.40"/>
    </edge>
    <edge id=":center_9" function="internal">
        <lane id=":center_9_0" index="0" speed="11.11" length="14.40" shape="151.60,142.80 151.60,157.20"/>
    </edge>
    <edge id=":center_10" function="internal">
        <lane id=":center_10_0" index="0" speed="8.00" length="4.07" shape="151.60,142.80 151.05,146.65 150.96,146.80"/>
    </edge>
    <edge id=":center_11" function="internal">
        <lane id=":center_11_0" index="0" speed="3.65" length="1.44" shape="151.60,142.80 150.80,144.00"/>
    </edge>
    <edge id=":center_20" function="internal">
        <lane id=":center_20_0" index="0" speed="8.00" length="10.13" shape="150.96,146.80 149.40,149.40 146.65,151.05 142.80,151.60"/>
    </edge>
    <edge id=":center_21" function="internal">
        <lane id=":center_21_0" index="0" speed="3.65" length="3.23" shape="150.80,144.00 150.00,144.40 149.20,144.00 148.40,142.80"/>
    </edge>
    <edge id=":center_12" function="internal">
        <lane id=":center_12_0" index="0" speed="6.51" length="9.03" shape="142.80,148.40 145.25,148.05 147.00,147.00 148.05,145.25 148.40,142.80"/>
    </edge>
    <edge id=":center_13" function="internal">
        <lane id=":center_13_0" index="0" speed="11.11" length="14.40" shape="142.80,148.40 157.20,148.40"/>
    </edge>
    <edge id=":center_14" function="internal">
        <lane id=":center_14_0" index="0" speed="8.00" length="4.07" shape="142.80,148.40 146.65,148.95 146.80,149.04"/>
    </edge>
    <edge id=":center_15" function="internal">
        <lane id=":center_15_0" index="0" speed="3.65" length="1.44" shape="142.80,148.40 144.00,149.20"/>
    </edge>
    <edge id=":center_22" function="internal">
        <lane id=":center_22_0" index="0" speed="8.00" length="10.13" shape="146.80,149.04 149.40,150.60 151.05,153.35 151.60,157.20"/>
    </edge>
    <edge id=":center_23" function="internal">
        <lane id=":center_23_0" index="0" speed="3.65" length="3.23" shape="144.00,149.20 144.40,150.00 144.00,150.80 142.80,151.60"/>
    </edge>
    <edge id=":left_0" function="internal">
        <lane id=":left_0_0" index="0" speed="3.65" length="4.67" shape="0.00,151.60 -1.20,150.80 -1.60,150.00 -1.20,149.20 0.00,148.40"/>
    </edge>
    <edge id=":right_0" function="internal">
        <lane id=":right_0_0" index="0" speed="3.65" length="4.67" shape="300.00,148.40 301.20,149.20 301.60,150.00 301.20,150.80 300.00,151.60"/>
    </edge>
    <edge id=":top_0" function="internal">
        <lane id=":top_0_0" index="0" speed="3.65" length="4.67" shape="151.60,300.00 150.80,301.20 150.00,301.60 149.20,301.20 148.40,300.00"/>
    </edge>

    <edge id="B_to_C" from="bottom" to="center" priority="-1">
        <lane id="B_to_C_0" index="0" speed="11.11" length="142.80" shape="151.60,0.00 151.60,142.80"/>
    </edge>
    <edge id="C_to_B" from="center" to="bottom" priority="-1">
        <lane id="C_to_B_0" index="0" speed="11.11" length="142.80" shape="148.40,142.80 148.40,0.00"/>
    </edge>
    <edge id="C_to_L" from="center" to="left" priority="-1">
        <lane id="C_to_L_0" index="0" speed="11.11" length="142.80" shape="142.80,151.60 0.00,151.60"/>
    </edge>
    <edge id="C_to_R" from="center" to="right" priority="-1">
        <lane id="C_to_R_0" index="0" speed="11.11" length="142.80" shape="157.20,148.40 300.00,148.40"/>
    </edge>
    <edge id="C_to_T" from="center" to="top" priority="-1">
        <lane id="C_to_T_0" index="0" speed="11.11" length="142.80" shape="151.60,157.20 151.60,300.00"/>
    </edge>
    <edge id="L_to_C" from="left" to="center" priority="-1">
        <lane id="L_to_C_0" index="0" speed="11.11" length="142.80" shape="0.00,148.40 142.80,148.40"/>
    </edge>
    <edge id="R_to_C" from="right" to="center" priority="-1">
        <lane id="R_to_C_0" index="0" speed="11.11" length="142.80" shape="300.00,151.60 157.20,151.60"/>
    </edge>
    <edge id="T_to_C" from="top" to="center" priority="-1">
        <lane id="T_to_C_0" index="0" speed="11.11" length="142.80" shape="148.40,300.00 148.40,157.20"/>
    </edge>

    <tlLogic id="center" type="static" programID="0" offset="0">
        <phase duration="42" state="GGggrrrrGGggrrrr"/>
        <phase duration="3"  state="yyyyrrrryyyyrrrr"/>
        <phase duration="42" state="rrrrGGggrrrrGGgg"/>
        <phase duration="3"  state="rrrryyyyrrrryyyy"/>
    </tlLogic>

    <junction id="bottom" type="priority" x="150.00" y="0.00" incLanes="C_to_B_0" intLanes=":bottom_0_0" shape="150.00,0.00 146.80,0.00 150.00,0.00">
        <request index="0" response="0" foes="0" cont="0"/>
    </junction>
    <junction id="center" type="traffic_light" x="150.00" y="150.00" incLanes="T_to_C_0 R_to_C_0 B_to_C_0 L_to_C_0" intLanes=":center_0_0 :center_1_0 :center_16_0 :center_17_0 :center_4_0 :center_5_0 :center_18_0 :center_19_0 :center_8_0 :center_9_0 :center_20_0 :center_21_0 :center_12_0 :center_13_0 :center_22_0 :center_23_0" shape="146.80,157.20 153.20,157.20 153.64,154.98 154.20,154.20 154.98,153.64 155.98,153.31 157.20,153.20 157.20,146.80 154.98,146.36 154.20,145.80 153.64,145.02 153.31,144.02 153.20,142.80 146.80,142.80 146.36,145.02 145.80,145.80 145.02,146.36 144.02,146.69 142.80,146.80 142.80,153.20 145.02,153.64 145.80,154.20 146.36,154.98 146.69,155.98">
        <request index="0"  response="0000000000000000" foes="1000010000100000" cont="0"/>
        <request index="1"  response="0100000001000000" foes="0111110001100000" cont="0"/>
        <request index="2"  response="0100001101000000" foes="0110011111100000" cont="1"/>
        <request index="3"  response="0100001000010000" foes="0100001000010000" cont="1"/>
        <request index="4"  response="0000001000000000" foes="0100001000001000" cont="0"/>
        <request index="5"  response="0000011000000111" foes="1100011000000111" cont="0"/>
        <request index="6"  response="0011011000000110" foes="0111111000000110" cont="1"/>
        <request index="7"  response="0010000100000100" foes="0010000100000100" cont="1"/>
        <request index="8"  response="0000000000000000" foes="0010000010000100" cont="0"/>
        <request index="9"  response="0100000001000000" foes="0110000001111100" cont="0"/>
        <request index="10" response="0100000001000111" foes="1110000001100111" cont="1"/>
        <request index="11" response="0001000001000010" foes="0001000001000010" cont="1"/>
        <request index="12" response="0000000000000010" foes="0000100001000010" cont="0"/>
        <request index="13" response="0000011100000110" foes="0000011111000110" cont="0"/>
        <request index="14" response="0000011001110110" foes="0000011001111110" cont="1"/>
        <request index="15" response="0000010000100001" foes="0000010000100001" cont="1"/>
    </junction>
    <junction id="left" type="priority" x="0.00" y="150.00" incLanes="C_to_L_0" intLanes=":left_0_0" shape="0.00,150.00 0.00,153.20 0.00,150.00">
        <request index="0" response="0" foes="0" cont="0"/>
    </junction>
    <junction id="right" type="priority" x="300.00" y="150.00" incLanes="C_to_R_0" intLanes=":right_0_0" shape="300.00,150.00 300.00,146.80 300.00,150.00">
        <request index="0" response="0" foes="0" cont="0"/>
    </junction>
    <junction id="top" type="priority" x="150.00" y="300.00" incLanes="C_to_T_0" intLanes=":top_0_0" shape="150.00,300.00 153.20,300.00 150.00,300.00">
        <request index="0" response="0" foes="0" cont="0"/>
    </junction>

    <junction id=":center_16_0" type="internal" x="149.04" y="153.20" incLanes=":center_2_0 B_to_C_0" intLanes=":center_5_0 :center_6_0 :center_7_0 :center_8_0 :center_9_0 :center_13_0 :center_14_0"/>
    <junction id=":center_17_0" type="internal" x="149.20" y="156.00" incLanes=":center_3_0 B_to_C_0 L_to_C_0 R_to_C_0" intLanes=":center_4_0 :center_9_0 :center_14_0"/>
    <junction id=":center_18_0" type="internal" x="153.20" y="150.96" incLanes=":center_6_0 L_to_C_0" intLanes=":center_1_0 :center_2_0 :center_9_0 :center_10_0 :center_11_0 :center_12_0 :center_13_0"/>
    <junction id=":center_19_0" type="internal" x="156.00" y="150.80" incLanes=":center_7_0 B_to_C_0 L_to_C_0 T_to_C_0" intLanes=":center_2_0 :center_8_0 :center_13_0"/>
    <junction id=":center_20_0" type="internal" x="150.96" y="146.80" incLanes=":center_10_0 T_to_C_0" intLanes=":center_0_0 :center_1_0 :center_5_0 :center_6_0 :center_13_0 :center_14_0 :center_15_0"/>
    <junction id=":center_21_0" type="internal" x="150.80" y="144.00" incLanes=":center_11_0 L_to_C_0 R_to_C_0 T_to_C_0" intLanes=":center_1_0 :center_6_0 :center_12_0"/>
    <junction id=":center_22_0" type="internal" x="146.80" y="149.04" incLanes=":center_14_0 R_to_C_0" intLanes=":center_1_0 :center_2_0 :center_3_0 :center_4_0 :center_5_0 :center_9_0 :center_10_0"/>
    <junction id=":center_23_0" type="internal" x="144.00" y="149.20" incLanes=":center_15_0 B_to_C_0 R_to_C_0 T_to_C_0" intLanes=":center_0_0 :center_5_0 :center_10_0"/>

    <connection from="B_to_C" to="C_to_R" fromLane="0" toLane="0" via=":center_8_0" tl="center" linkIndex="8" dir="r" state="O"/>
    <connection from="B_to_C" to="C_to_T" fromLane="0" toLane="0" via=":center_9_0" tl="center" linkIndex="9" dir="s" state="O"/>
    <connection from="B_to_C" to="C_to_L" fromLane="0" toLane="0" via=":center_10_0" tl="center" linkIndex="10" dir="l" state="o"/>
    <connection from="B_to_C" to="C_to_B" fromLane="0" toLane="0" via=":center_11_0" tl="center" linkIndex="11" dir="t" state="o"/>
    <connection from="C_to_B" to="B_to_C" fromLane="0" toLane="0" via=":bottom_0_0" dir="t" state="M"/>
    <connection from="C_to_L" to="L_to_C" fromLane="0" toLane="0" via=":left_0_0" dir="t" state="M"/>
    <connection from="C_to_R" to="R_to_C" fromLane="0" toLane="0" via=":right_0_0" dir="t" state="M"/>
    <connection from="C_to_T" to="T_to_C" fromLane="0" toLane="0" via=":top_0_0" dir="t" state="M"/>
    <connection from="L_to_C" to="C_to_B" fromLane="0" toLane="0" via=":center_12_0" tl="center" linkIndex="12" dir="r" state="o"/>
    <connection from="L_to_C" to="C_to_R" fromLane="0" toLane="0" via=":center_13_0" tl="center" linkIndex="13" dir="s" state="o"/>
    <connection from="L_to_C" to="C_to_T" fromLane="0" toLane="0" via=":center_14_0" tl="center" linkIndex="14" dir="l" state="o"/>
    <connection from="L_to_C" to="C_to_L" fromLane="0" toLane="0" via=":center_15_0" tl="center" linkIndex="15" dir="t" state="o"/>
    <connection from="R_to_C" to="C_to_T" fromLane="0" toLane="0" via=":center_4_0" tl="center" linkIndex="4" dir="r" state="o"/>
    <connection from="R_to_C" to="C_to_L" fromLane="0" toLane="0" via=":center_5_0" tl="center" linkIndex="5" dir="s" state="o"/>
    <connection from="R_to_C" to="C_to_B" fromLane="0" toLane="0" via=":center_6_0" tl="center" linkIndex="6" dir="l" state="o"/>
    <connection from="R_to_C" to="C_to_R" fromLane="0" toLane="0" via=":center_7_0" tl="center" linkIndex="7" dir="t" state="o"/>
    <connection from="T_to_C" to="C_to_L" fromLane="0" toLane="0" via=":center_0_0" tl="center" linkIndex="0" dir="r" state="O"/>
    <connection from="T_to_C" to="C_to_B" fromLane="0" toLane="0" via=":center_1_0" tl="center" linkIndex="1" dir="s" state="O"/>
    <connection from="T_to_C" to="C_to_R" fromLane="0" toLane="0" via=":center_2_0" tl="center" linkIndex="2" dir="l" state="o"/>
    <connection from="T_to_C" to="C_to_T" fromLane="0" toLane="0" via=":center_3_0" tl="center" linkIndex="3" dir="t" state="o"/>

    <connection from=":bottom_0" to="B_to_C" fromLane="0" toLane="0" dir="t" state="M"/>
    <connection from=":center_0" to="C_to_L" fromLane="0" toLane="0" dir="r" state="M"/>
    <connection from=":center_1" to="C_to_B" fromLane="0" toLane="0" dir="s" state="M"/>
    <connection from=":center_2" to="C_to_R" fromLane="0" toLane="0" via=":center_16_0" dir="l" state="m"/>
    <connection from=":center_16" to="C_to_R" fromLane="0" toLane="0" dir="l" state="M"/>
    <connection from=":center_3" to="C_to_T" fromLane="0" toLane="0" via=":center_17_0" dir="t" state="m"/>
    <connection from=":center_17" to="C_to_T" fromLane="0" toLane="0" dir="t" state="M"/>
    <connection from=":center_4" to="C_to_T" fromLane="0" toLane="0" dir="r" state="M"/>
    <connection from=":center_5" to="C_to_L" fromLane="0" toLane="0" dir="s" state="M"/>
    <connection from=":center_6" to="C_to_B" fromLane="0" toLane="0" via=":center_18_0" dir="l" state="m"/>
    <connection from=":center_18" to="C_to_B" fromLane="0" toLane="0" dir="l" state="M"/>
    <connection from=":center_7" to="C_to_R" fromLane="0" toLane="0" via=":center_19_0" dir="t" state="m"/>
    <connection from=":center_19" to="C_to_R" fromLane="0" toLane="0" dir="t" state="M"/>
    <connection from=":center_8" to="C_to_R" fromLane="0" toLane="0" dir="r" state="M"/>
    <connection from=":center_9" to="C_to_T" fromLane="0" toLane="0" dir="s" state="M"/>
    <connection from=":center_10" to="C_to_L" fromLane="0" toLane="0" via=":center_20_0" dir="l" state="m"/>
    <connection from=":center_20" to="C_to_L" fromLane="0" toLane="0" dir="l" state="M"/>
    <connection from=":center_11" to="C_to_B" fromLane="0" toLane="0" via=":center_21_0" dir="t" state="m"/>
    <connection from=":center_21" to="C_to_B" fromLane="0" toLane="0" dir="t" state="M"/>
    <connection from=":center_12" to="C_to_B" fromLane="0" toLane="0" dir="r" state="M"/>
    <connection from=":center_13" to="C_to_R" fromLane="0" toLane="0" dir="s" state="M"/>
    <connection from=":center_14" to="C_to_T" fromLane="0" toLane="0" via=":center_22_0" dir="l" state="m"/>
    <connection from=":center_22" to="C_to_T" fromLane="0" toLane="0" dir="l" state="M"/>
    <connection from=":center_15" to="C_to_L" fromLane="0" toLane="0" via=":center_23_0" dir="t" state="m"/>
    <connection from=":center_23" to="C_to_L" fromLane="0" toLane="0" dir="t" state="M"/>
    <connection from=":left_0" to="L_to_C" fromLane="0" toLane="0" dir="t" state="M"/>
    <connection from=":right_0" to="R_to_C" fromLane="0" toLane="0" dir="t" state="M"/>
    <connection from=":top_0" to="T_to_C" fromLane="0" toLane="0" dir="t" state="M"/>

</net>
